PNNL/TaxonomyFeeders/PGE_Models/GLD Simulation Primary/GLD Simulation Primary/OC0001/OC0001_glmfile_PVdist.glm
//*********************************************
// Include the modules
//*********************************************

module climate;
module generators;

//*********************************************
// Climate
//*********************************************

object climate {
    tmyfile "CA-San_francisco.tmy2";
}

//object csv_reader {
//    name my_csv_reader;
//    filename climate_csv.csv;
//}

//object climate {
//    tmyfile climate_csv.csv;
//    reader my_csv_reader;
//}

//*********************************************
// Transformer config Objects
//*********************************************
object transformer_configuration {
	name Xfrm_config_PV_L_120491_A;
	connect_type SINGLE_PHASE_CENTER_TAPPED;
	install_type POLETOP;
	power_rating 10000;
	primary_voltage 2400;
	secondary_voltage 120;
	resistance 0.09;
	reactance 1.81;
}

object transformer_configuration {
	name Xfrm_config_PV_L_138842_A;
	connect_type SINGLE_PHASE_CENTER_TAPPED;
	install_type POLETOP;
	power_rating 10000;
	primary_voltage 2400;
	secondary_voltage 120;
	resistance 0.09;
	reactance 1.81;
}

object transformer_configuration {
	name Xfrm_config_PV_L_120491_C;
	connect_type SINGLE_PHASE_CENTER_TAPPED;
	install_type POLETOP;
	power_rating 10000;
	primary_voltage 2400;
	secondary_voltage 120;
	resistance 0.09;
	reactance 1.81;
}

object transformer_configuration {
	name Xfrm_config_PV_L_120491_B;
	connect_type SINGLE_PHASE_CENTER_TAPPED;
	install_type POLETOP;
	power_rating 10000;
	primary_voltage 2400;
	secondary_voltage 120;
	resistance 0.09;
	reactance 1.81;
}

object transformer_configuration {
	name Xfrm_config_PV_L_32404_B;
	connect_type SINGLE_PHASE_CENTER_TAPPED;
	install_type POLETOP;
	power_rating 10000;
	primary_voltage 2400;
	secondary_voltage 120;
	resistance 0.09;
	reactance 1.81;
}

object transformer_configuration {
	name Xfrm_config_PV_L_32404_A;
	connect_type SINGLE_PHASE_CENTER_TAPPED;
	install_type POLETOP;
	power_rating 10000;
	primary_voltage 2400;
	secondary_voltage 120;
	resistance 0.09;
	reactance 1.81;
}

object transformer_configuration {
	name Xfrm_config_PV_L_138842_B;
	connect_type SINGLE_PHASE_CENTER_TAPPED;
	install_type POLETOP;
	power_rating 10000;
	primary_voltage 2400;
	secondary_voltage 120;
	resistance 0.09;
	reactance 1.81;
}

object transformer_configuration {
	name Xfrm_config_PV_L_8733_A;
	connect_type SINGLE_PHASE_CENTER_TAPPED;
	install_type POLETOP;
	power_rating 10000;
	primary_voltage 2400;
	secondary_voltage 120;
	resistance 0.09;
	reactance 1.81;
}

object transformer_configuration {
	name Xfrm_config_PV_L_39475_B;
	connect_type SINGLE_PHASE_CENTER_TAPPED;
	install_type POLETOP;
	power_rating 10000;
	primary_voltage 2400;
	secondary_voltage 120;
	resistance 0.09;
	reactance 1.81;
}

object transformer_configuration {
	name Xfrm_config_PV_L_39475_A;
	connect_type SINGLE_PHASE_CENTER_TAPPED;
	install_type POLETOP;
	power_rating 10000;
	primary_voltage 2400;
	secondary_voltage 120;
	resistance 0.09;
	reactance 1.81;
}

object transformer_configuration {
	name Xfrm_config_PV_L_8733_B;
	connect_type SINGLE_PHASE_CENTER_TAPPED;
	install_type POLETOP;
	power_rating 10000;
	primary_voltage 2400;
	secondary_voltage 120;
	resistance 0.09;
	reactance 1.81;
}

object transformer_configuration {
	name Xfrm_config_PV_L_123675_A;
	connect_type SINGLE_PHASE_CENTER_TAPPED;
	install_type POLETOP;
	power_rating 10000;
	primary_voltage 2400;
	secondary_voltage 120;
	resistance 0.09;
	reactance 1.81;
}

object transformer_configuration {
	name Xfrm_config_PV_L_123675_B;
	connect_type SINGLE_PHASE_CENTER_TAPPED;
	install_type POLETOP;
	power_rating 10000;
	primary_voltage 2400;
	secondary_voltage 120;
	resistance 0.09;
	reactance 1.81;
}

object transformer_configuration {
	name Xfrm_config_PV_L_123675_C;
	connect_type SINGLE_PHASE_CENTER_TAPPED;
	install_type POLETOP;
	power_rating 10000;
	primary_voltage 2400;
	secondary_voltage 120;
	resistance 0.09;
	reactance 1.81;
}

object transformer_configuration {
	name Xfrm_config_PV_L_88100_C;
	connect_type SINGLE_PHASE_CENTER_TAPPED;
	install_type POLETOP;
	power_rating 10000;
	primary_voltage 2400;
	secondary_voltage 120;
	resistance 0.09;
	reactance 1.81;
}

object transformer_configuration {
	name Xfrm_config_PV_L_88092_B;
	connect_type SINGLE_PHASE_CENTER_TAPPED;
	install_type POLETOP;
	power_rating 10000;
	primary_voltage 2400;
	secondary_voltage 120;
	resistance 0.09;
	reactance 1.81;
}

object transformer_configuration {
	name Xfrm_config_PV_L_88092_C;
	connect_type SINGLE_PHASE_CENTER_TAPPED;
	install_type POLETOP;
	power_rating 10000;
	primary_voltage 2400;
	secondary_voltage 120;
	resistance 0.09;
	reactance 1.81;
}

object transformer_configuration {
	name Xfrm_config_PV_L_88092_A;
	connect_type SINGLE_PHASE_CENTER_TAPPED;
	install_type POLETOP;
	power_rating 10000;
	primary_voltage 2400;
	secondary_voltage 120;
	resistance 0.09;
	reactance 1.81;
}

object transformer_configuration {
	name Xfrm_config_PV_L_31765_B;
	connect_type SINGLE_PHASE_CENTER_TAPPED;
	install_type POLETOP;
	power_rating 10000;
	primary_voltage 2400;
	secondary_voltage 120;
	resistance 0.09;
	reactance 1.81;
}

object transformer_configuration {
	name Xfrm_config_PV_L_31765_A;
	connect_type SINGLE_PHASE_CENTER_TAPPED;
	install_type POLETOP;
	power_rating 10000;
	primary_voltage 2400;
	secondary_voltage 120;
	resistance 0.09;
	reactance 1.81;
}

object transformer_configuration {
	name Xfrm_config_PV_L_88100_A;
	connect_type SINGLE_PHASE_CENTER_TAPPED;
	install_type POLETOP;
	power_rating 10000;
	primary_voltage 2400;
	secondary_voltage 120;
	resistance 0.09;
	reactance 1.81;
}

object transformer_configuration {
	name Xfrm_config_PV_L_72953_B;
	connect_type SINGLE_PHASE_CENTER_TAPPED;
	install_type POLETOP;
	power_rating 10000;
	primary_voltage 2400;
	secondary_voltage 120;
	resistance 0.09;
	reactance 1.81;
}

object transformer_configuration {
	name Xfrm_config_PV_L_72953_A;
	connect_type SINGLE_PHASE_CENTER_TAPPED;
	install_type POLETOP;
	power_rating 10000;
	primary_voltage 2400;
	secondary_voltage 120;
	resistance 0.09;
	reactance 1.81;
}

object transformer_configuration {
	name Xfrm_config_PV_L_144099_B;
	connect_type SINGLE_PHASE_CENTER_TAPPED;
	install_type POLETOP;
	power_rating 10000;
	primary_voltage 2400;
	secondary_voltage 120;
	resistance 0.09;
	reactance 1.81;
}

object transformer_configuration {
	name Xfrm_config_PV_L_144099_A;
	connect_type SINGLE_PHASE_CENTER_TAPPED;
	install_type POLETOP;
	power_rating 10000;
	primary_voltage 2400;
	secondary_voltage 120;
	resistance 0.09;
	reactance 1.81;
}

object transformer_configuration {
	name Xfrm_config_PV_L_9668_B;
	connect_type SINGLE_PHASE_CENTER_TAPPED;
	install_type POLETOP;
	power_rating 10000;
	primary_voltage 2400;
	secondary_voltage 120;
	resistance 0.09;
	reactance 1.81;
}

object transformer_configuration {
	name Xfrm_config_PV_L_9668_A;
	connect_type SINGLE_PHASE_CENTER_TAPPED;
	install_type POLETOP;
	power_rating 10000;
	primary_voltage 2400;
	secondary_voltage 120;
	resistance 0.09;
	reactance 1.81;
}

object transformer_configuration {
	name Xfrm_config_PV_L_145609_A;
	connect_type SINGLE_PHASE_CENTER_TAPPED;
	install_type POLETOP;
	power_rating 10000;
	primary_voltage 2400;
	secondary_voltage 120;
	resistance 0.09;
	reactance 1.81;
}

object transformer_configuration {
	name Xfrm_config_PV_L_123711_B;
	connect_type SINGLE_PHASE_CENTER_TAPPED;
	install_type POLETOP;
	power_rating 10000;
	primary_voltage 2400;
	secondary_voltage 120;
	resistance 0.09;
	reactance 1.81;
}

object transformer_configuration {
	name Xfrm_config_PV_L_123711_A;
	connect_type SINGLE_PHASE_CENTER_TAPPED;
	install_type POLETOP;
	power_rating 10000;
	primary_voltage 2400;
	secondary_voltage 120;
	resistance 0.09;
	reactance 1.81;
}

object transformer_configuration {
	name Xfrm_config_PV_L_145609_B;
	connect_type SINGLE_PHASE_CENTER_TAPPED;
	install_type POLETOP;
	power_rating 10000;
	primary_voltage 2400;
	secondary_voltage 120;
	resistance 0.09;
	reactance 1.81;
}

object transformer_configuration {
	name Xfrm_config_PV_L_88090_A;
	connect_type SINGLE_PHASE_CENTER_TAPPED;
	install_type POLETOP;
	power_rating 10000;
	primary_voltage 2400;
	secondary_voltage 120;
	resistance 0.09;
	reactance 1.81;
}

object transformer_configuration {
	name Xfrm_config_PV_L_88090_B;
	connect_type SINGLE_PHASE_CENTER_TAPPED;
	install_type POLETOP;
	power_rating 10000;
	primary_voltage 2400;
	secondary_voltage 120;
	resistance 0.09;
	reactance 1.81;
}

object transformer_configuration {
	name Xfrm_config_PV_L_88090_C;
	connect_type SINGLE_PHASE_CENTER_TAPPED;
	install_type POLETOP;
	power_rating 10000;
	primary_voltage 2400;
	secondary_voltage 120;
	resistance 0.09;
	reactance 1.81;
}

object transformer_configuration {
	name Xfrm_config_PV_L_119156_B;
	connect_type SINGLE_PHASE_CENTER_TAPPED;
	install_type POLETOP;
	power_rating 10000;
	primary_voltage 2400;
	secondary_voltage 120;
	resistance 0.09;
	reactance 1.81;
}

object transformer_configuration {
	name Xfrm_config_PV_L_119156_A;
	connect_type SINGLE_PHASE_CENTER_TAPPED;
	install_type POLETOP;
	power_rating 10000;
	primary_voltage 2400;
	secondary_voltage 120;
	resistance 0.09;
	reactance 1.81;
}

object transformer_configuration {
	name Xfrm_config_PV_L_24092_A;
	connect_type SINGLE_PHASE_CENTER_TAPPED;
	install_type POLETOP;
	power_rating 10000;
	primary_voltage 2400;
	secondary_voltage 120;
	resistance 0.09;
	reactance 1.81;
}

object transformer_configuration {
	name Xfrm_config_PV_L_24092_B;
	connect_type SINGLE_PHASE_CENTER_TAPPED;
	install_type POLETOP;
	power_rating 10000;
	primary_voltage 2400;
	secondary_voltage 120;
	resistance 0.09;
	reactance 1.81;
}

object transformer_configuration {
	name Xfrm_config_PV_L_114709_B;
	connect_type SINGLE_PHASE_CENTER_TAPPED;
	install_type POLETOP;
	power_rating 10000;
	primary_voltage 2400;
	secondary_voltage 120;
	resistance 0.09;
	reactance 1.81;
}

object transformer_configuration {
	name Xfrm_config_PV_L_114709_C;
	connect_type SINGLE_PHASE_CENTER_TAPPED;
	install_type POLETOP;
	power_rating 10000;
	primary_voltage 2400;
	secondary_voltage 120;
	resistance 0.09;
	reactance 1.81;
}

object transformer_configuration {
	name Xfrm_config_PV_L_111954_C;
	connect_type SINGLE_PHASE_CENTER_TAPPED;
	install_type POLETOP;
	power_rating 10000;
	primary_voltage 2400;
	secondary_voltage 120;
	resistance 0.09;
	reactance 1.81;
}

object transformer_configuration {
	name Xfrm_config_PV_L_114709_A;
	connect_type SINGLE_PHASE_CENTER_TAPPED;
	install_type POLETOP;
	power_rating 10000;
	primary_voltage 2400;
	secondary_voltage 120;
	resistance 0.09;
	reactance 1.81;
}

object transformer_configuration {
	name Xfrm_config_PV_L_118309_B;
	connect_type SINGLE_PHASE_CENTER_TAPPED;
	install_type POLETOP;
	power_rating 10000;
	primary_voltage 2400;
	secondary_voltage 120;
	resistance 0.09;
	reactance 1.81;
}

object transformer_configuration {
	name Xfrm_config_PV_L_118309_C;
	connect_type SINGLE_PHASE_CENTER_TAPPED;
	install_type POLETOP;
	power_rating 10000;
	primary_voltage 2400;
	secondary_voltage 120;
	resistance 0.09;
	reactance 1.81;
}

object transformer_configuration {
	name Xfrm_config_PV_L_118309_A;
	connect_type SINGLE_PHASE_CENTER_TAPPED;
	install_type POLETOP;
	power_rating 10000;
	primary_voltage 2400;
	secondary_voltage 120;
	resistance 0.09;
	reactance 1.81;
}

object transformer_configuration {
	name Xfrm_config_PV_L_128221_B;
	connect_type SINGLE_PHASE_CENTER_TAPPED;
	install_type POLETOP;
	power_rating 10000;
	primary_voltage 2400;
	secondary_voltage 120;
	resistance 0.09;
	reactance 1.81;
}

object transformer_configuration {
	name Xfrm_config_PV_L_128221_C;
	connect_type SINGLE_PHASE_CENTER_TAPPED;
	install_type POLETOP;
	power_rating 10000;
	primary_voltage 2400;
	secondary_voltage 120;
	resistance 0.09;
	reactance 1.81;
}

object transformer_configuration {
	name Xfrm_config_PV_L_128221_A;
	connect_type SINGLE_PHASE_CENTER_TAPPED;
	install_type POLETOP;
	power_rating 10000;
	primary_voltage 2400;
	secondary_voltage 120;
	resistance 0.09;
	reactance 1.81;
}

object transformer_configuration {
	name Xfrm_config_PV_L_12684_B;
	connect_type SINGLE_PHASE_CENTER_TAPPED;
	install_type POLETOP;
	power_rating 10000;
	primary_voltage 2400;
	secondary_voltage 120;
	resistance 0.09;
	reactance 1.81;
}

object transformer_configuration {
	name Xfrm_config_PV_L_28871_A;
	connect_type SINGLE_PHASE_CENTER_TAPPED;
	install_type POLETOP;
	power_rating 10000;
	primary_voltage 2400;
	secondary_voltage 120;
	resistance 0.09;
	reactance 1.81;
}

object transformer_configuration {
	name Xfrm_config_PV_L_28871_B;
	connect_type SINGLE_PHASE_CENTER_TAPPED;
	install_type POLETOP;
	power_rating 10000;
	primary_voltage 2400;
	secondary_voltage 120;
	resistance 0.09;
	reactance 1.81;
}

object transformer_configuration {
	name Xfrm_config_PV_L_14305_A;
	connect_type SINGLE_PHASE_CENTER_TAPPED;
	install_type POLETOP;
	power_rating 10000;
	primary_voltage 2400;
	secondary_voltage 120;
	resistance 0.09;
	reactance 1.81;
}

object transformer_configuration {
	name Xfrm_config_PV_L_14305_B;
	connect_type SINGLE_PHASE_CENTER_TAPPED;
	install_type POLETOP;
	power_rating 10000;
	primary_voltage 2400;
	secondary_voltage 120;
	resistance 0.09;
	reactance 1.81;
}

object transformer_configuration {
	name Xfrm_config_PV_L_145623_A;
	connect_type SINGLE_PHASE_CENTER_TAPPED;
	install_type POLETOP;
	power_rating 10000;
	primary_voltage 2400;
	secondary_voltage 120;
	resistance 0.09;
	reactance 1.81;
}

object transformer_configuration {
	name Xfrm_config_PV_L_145623_B;
	connect_type SINGLE_PHASE_CENTER_TAPPED;
	install_type POLETOP;
	power_rating 10000;
	primary_voltage 2400;
	secondary_voltage 120;
	resistance 0.09;
	reactance 1.81;
}

object transformer_configuration {
	name Xfrm_config_PV_L_89172_A;
	connect_type SINGLE_PHASE_CENTER_TAPPED;
	install_type POLETOP;
	power_rating 10000;
	primary_voltage 2400;
	secondary_voltage 120;
	resistance 0.09;
	reactance 1.81;
}

object transformer_configuration {
	name Xfrm_config_PV_L_88109_C;
	connect_type SINGLE_PHASE_CENTER_TAPPED;
	install_type POLETOP;
	power_rating 10000;
	primary_voltage 2400;
	secondary_voltage 120;
	resistance 0.09;
	reactance 1.81;
}

object transformer_configuration {
	name Xfrm_config_PV_L_88109_B;
	connect_type SINGLE_PHASE_CENTER_TAPPED;
	install_type POLETOP;
	power_rating 10000;
	primary_voltage 2400;
	secondary_voltage 120;
	resistance 0.09;
	reactance 1.81;
}

object transformer_configuration {
	name Xfrm_config_PV_L_88109_A;
	connect_type SINGLE_PHASE_CENTER_TAPPED;
	install_type POLETOP;
	power_rating 10000;
	primary_voltage 2400;
	secondary_voltage 120;
	resistance 0.09;
	reactance 1.81;
}

object transformer_configuration {
	name Xfrm_config_PV_L_30105_A;
	connect_type SINGLE_PHASE_CENTER_TAPPED;
	install_type POLETOP;
	power_rating 10000;
	primary_voltage 2400;
	secondary_voltage 120;
	resistance 0.09;
	reactance 1.81;
}

object transformer_configuration {
	name Xfrm_config_PV_L_30105_B;
	connect_type SINGLE_PHASE_CENTER_TAPPED;
	install_type POLETOP;
	power_rating 10000;
	primary_voltage 2400;
	secondary_voltage 120;
	resistance 0.09;
	reactance 1.81;
}

object transformer_configuration {
	name Xfrm_config_PV_L_30105_C;
	connect_type SINGLE_PHASE_CENTER_TAPPED;
	install_type POLETOP;
	power_rating 10000;
	primary_voltage 2400;
	secondary_voltage 120;
	resistance 0.09;
	reactance 1.81;
}

object transformer_configuration {
	name Xfrm_config_PV_L_39392_A;
	connect_type SINGLE_PHASE_CENTER_TAPPED;
	install_type POLETOP;
	power_rating 10000;
	primary_voltage 2400;
	secondary_voltage 120;
	resistance 0.09;
	reactance 1.81;
}

object transformer_configuration {
	name Xfrm_config_PV_L_135525_B;
	connect_type SINGLE_PHASE_CENTER_TAPPED;
	install_type POLETOP;
	power_rating 10000;
	primary_voltage 2400;
	secondary_voltage 120;
	resistance 0.09;
	reactance 1.81;
}

object transformer_configuration {
	name Xfrm_config_PV_L_135525_A;
	connect_type SINGLE_PHASE_CENTER_TAPPED;
	install_type POLETOP;
	power_rating 10000;
	primary_voltage 2400;
	secondary_voltage 120;
	resistance 0.09;
	reactance 1.81;
}

object transformer_configuration {
	name Xfrm_config_PV_L_39392_B;
	connect_type SINGLE_PHASE_CENTER_TAPPED;
	install_type POLETOP;
	power_rating 10000;
	primary_voltage 2400;
	secondary_voltage 120;
	resistance 0.09;
	reactance 1.81;
}

object transformer_configuration {
	name Xfrm_config_PV_L_2588_B;
	connect_type SINGLE_PHASE_CENTER_TAPPED;
	install_type POLETOP;
	power_rating 10000;
	primary_voltage 2400;
	secondary_voltage 120;
	resistance 0.09;
	reactance 1.81;
}

object transformer_configuration {
	name Xfrm_config_PV_L_2588_A;
	connect_type SINGLE_PHASE_CENTER_TAPPED;
	install_type POLETOP;
	power_rating 10000;
	primary_voltage 2400;
	secondary_voltage 120;
	resistance 0.09;
	reactance 1.81;
}

object transformer_configuration {
	name Xfrm_config_PV_L_1010_A;
	connect_type SINGLE_PHASE_CENTER_TAPPED;
	install_type POLETOP;
	power_rating 10000;
	primary_voltage 2400;
	secondary_voltage 120;
	resistance 0.09;
	reactance 1.81;
}

object transformer_configuration {
	name Xfrm_config_PV_L_1010_B;
	connect_type SINGLE_PHASE_CENTER_TAPPED;
	install_type POLETOP;
	power_rating 10000;
	primary_voltage 2400;
	secondary_voltage 120;
	resistance 0.09;
	reactance 1.81;
}

object transformer_configuration {
	name Xfrm_config_PV_L_1010_C;
	connect_type SINGLE_PHASE_CENTER_TAPPED;
	install_type POLETOP;
	power_rating 10000;
	primary_voltage 2400;
	secondary_voltage 120;
	resistance 0.09;
	reactance 1.81;
}

object transformer_configuration {
	name Xfrm_config_PV_L_108328_A;
	connect_type SINGLE_PHASE_CENTER_TAPPED;
	install_type POLETOP;
	power_rating 10000;
	primary_voltage 2400;
	secondary_voltage 120;
	resistance 0.09;
	reactance 1.81;
}

object transformer_configuration {
	name Xfrm_config_PV_L_108328_B;
	connect_type SINGLE_PHASE_CENTER_TAPPED;
	install_type POLETOP;
	power_rating 10000;
	primary_voltage 2400;
	secondary_voltage 120;
	resistance 0.09;
	reactance 1.81;
}

object transformer_configuration {
	name Xfrm_config_PV_L_108328_C;
	connect_type SINGLE_PHASE_CENTER_TAPPED;
	install_type POLETOP;
	power_rating 10000;
	primary_voltage 2400;
	secondary_voltage 120;
	resistance 0.09;
	reactance 1.81;
}

object transformer_configuration {
	name Xfrm_config_PV_L_88100_B;
	connect_type SINGLE_PHASE_CENTER_TAPPED;
	install_type POLETOP;
	power_rating 10000;
	primary_voltage 2400;
	secondary_voltage 120;
	resistance 0.09;
	reactance 1.81;
}

object transformer_configuration {
	name Xfrm_config_PV_L_39476_A;
	connect_type SINGLE_PHASE_CENTER_TAPPED;
	install_type POLETOP;
	power_rating 10000;
	primary_voltage 2400;
	secondary_voltage 120;
	resistance 0.09;
	reactance 1.81;
}

object transformer_configuration {
	name Xfrm_config_PV_L_39476_B;
	connect_type SINGLE_PHASE_CENTER_TAPPED;
	install_type POLETOP;
	power_rating 10000;
	primary_voltage 2400;
	secondary_voltage 120;
	resistance 0.09;
	reactance 1.81;
}

object transformer_configuration {
	name Xfrm_config_PV_L_39476_C;
	connect_type SINGLE_PHASE_CENTER_TAPPED;
	install_type POLETOP;
	power_rating 10000;
	primary_voltage 2400;
	secondary_voltage 120;
	resistance 0.09;
	reactance 1.81;
}

object transformer_configuration {
	name Xfrm_config_PV_L_88085_B;
	connect_type SINGLE_PHASE_CENTER_TAPPED;
	install_type POLETOP;
	power_rating 10000;
	primary_voltage 2400;
	secondary_voltage 120;
	resistance 0.09;
	reactance 1.81;
}

object transformer_configuration {
	name Xfrm_config_PV_L_88085_C;
	connect_type SINGLE_PHASE_CENTER_TAPPED;
	install_type POLETOP;
	power_rating 10000;
	primary_voltage 2400;
	secondary_voltage 120;
	resistance 0.09;
	reactance 1.81;
}

object transformer_configuration {
	name Xfrm_config_PV_L_88085_A;
	connect_type SINGLE_PHASE_CENTER_TAPPED;
	install_type POLETOP;
	power_rating 10000;
	primary_voltage 2400;
	secondary_voltage 120;
	resistance 0.09;
	reactance 1.81;
}

object transformer_configuration {
	name Xfrm_config_PV_L_88102_A;
	connect_type SINGLE_PHASE_CENTER_TAPPED;
	install_type POLETOP;
	power_rating 10000;
	primary_voltage 2400;
	secondary_voltage 120;
	resistance 0.09;
	reactance 1.81;
}

object transformer_configuration {
	name Xfrm_config_PV_L_88102_B;
	connect_type SINGLE_PHASE_CENTER_TAPPED;
	install_type POLETOP;
	power_rating 10000;
	primary_voltage 2400;
	secondary_voltage 120;
	resistance 0.09;
	reactance 1.81;
}

object transformer_configuration {
	name Xfrm_config_PV_L_88102_C;
	connect_type SINGLE_PHASE_CENTER_TAPPED;
	install_type POLETOP;
	power_rating 10000;
	primary_voltage 2400;
	secondary_voltage 120;
	resistance 0.09;
	reactance 1.81;
}

object transformer_configuration {
	name Xfrm_config_PV_L_143367_B;
	connect_type SINGLE_PHASE_CENTER_TAPPED;
	install_type POLETOP;
	power_rating 10000;
	primary_voltage 2400;
	secondary_voltage 120;
	resistance 0.09;
	reactance 1.81;
}

object transformer_configuration {
	name Xfrm_config_PV_L_80053_B;
	connect_type SINGLE_PHASE_CENTER_TAPPED;
	install_type POLETOP;
	power_rating 10000;
	primary_voltage 2400;
	secondary_voltage 120;
	resistance 0.09;
	reactance 1.81;
}

object transformer_configuration {
	name Xfrm_config_PV_L_143367_A;
	connect_type SINGLE_PHASE_CENTER_TAPPED;
	install_type POLETOP;
	power_rating 10000;
	primary_voltage 2400;
	secondary_voltage 120;
	resistance 0.09;
	reactance 1.81;
}

object transformer_configuration {
	name Xfrm_config_PV_L_79594_A;
	connect_type SINGLE_PHASE_CENTER_TAPPED;
	install_type POLETOP;
	power_rating 10000;
	primary_voltage 2400;
	secondary_voltage 120;
	resistance 0.09;
	reactance 1.81;
}

object transformer_configuration {
	name Xfrm_config_PV_L_79594_C;
	connect_type SINGLE_PHASE_CENTER_TAPPED;
	install_type POLETOP;
	power_rating 10000;
	primary_voltage 2400;
	secondary_voltage 120;
	resistance 0.09;
	reactance 1.81;
}

object transformer_configuration {
	name Xfrm_config_PV_L_79594_B;
	connect_type SINGLE_PHASE_CENTER_TAPPED;
	install_type POLETOP;
	power_rating 10000;
	primary_voltage 2400;
	secondary_voltage 120;
	resistance 0.09;
	reactance 1.81;
}

object transformer_configuration {
	name Xfrm_config_PV_L_21595_A;
	connect_type SINGLE_PHASE_CENTER_TAPPED;
	install_type POLETOP;
	power_rating 10000;
	primary_voltage 2400;
	secondary_voltage 120;
	resistance 0.09;
	reactance 1.81;
}

object transformer_configuration {
	name Xfrm_config_PV_L_88087_A;
	connect_type SINGLE_PHASE_CENTER_TAPPED;
	install_type POLETOP;
	power_rating 10000;
	primary_voltage 2400;
	secondary_voltage 120;
	resistance 0.09;
	reactance 1.81;
}

object transformer_configuration {
	name Xfrm_config_PV_L_88087_B;
	connect_type SINGLE_PHASE_CENTER_TAPPED;
	install_type POLETOP;
	power_rating 10000;
	primary_voltage 2400;
	secondary_voltage 120;
	resistance 0.09;
	reactance 1.81;
}

object transformer_configuration {
	name Xfrm_config_PV_L_21595_B;
	connect_type SINGLE_PHASE_CENTER_TAPPED;
	install_type POLETOP;
	power_rating 10000;
	primary_voltage 2400;
	secondary_voltage 120;
	resistance 0.09;
	reactance 1.81;
}

object transformer_configuration {
	name Xfrm_config_PV_L_61890_A;
	connect_type SINGLE_PHASE_CENTER_TAPPED;
	install_type POLETOP;
	power_rating 10000;
	primary_voltage 2400;
	secondary_voltage 120;
	resistance 0.09;
	reactance 1.81;
}

object transformer_configuration {
	name Xfrm_config_PV_L_61890_C;
	connect_type SINGLE_PHASE_CENTER_TAPPED;
	install_type POLETOP;
	power_rating 10000;
	primary_voltage 2400;
	secondary_voltage 120;
	resistance 0.09;
	reactance 1.81;
}

object transformer_configuration {
	name Xfrm_config_PV_L_61890_B;
	connect_type SINGLE_PHASE_CENTER_TAPPED;
	install_type POLETOP;
	power_rating 10000;
	primary_voltage 2400;
	secondary_voltage 120;
	resistance 0.09;
	reactance 1.81;
}

object transformer_configuration {
	name Xfrm_config_PV_L_80053_A;
	connect_type SINGLE_PHASE_CENTER_TAPPED;
	install_type POLETOP;
	power_rating 10000;
	primary_voltage 2400;
	secondary_voltage 120;
	resistance 0.09;
	reactance 1.81;
}

object transformer_configuration {
	name Xfrm_config_PV_L_39475_C;
	connect_type SINGLE_PHASE_CENTER_TAPPED;
	install_type POLETOP;
	power_rating 10000;
	primary_voltage 2400;
	secondary_voltage 120;
	resistance 0.09;
	reactance 1.81;
}

object transformer_configuration {
	name Xfrm_config_PV_L_79883_A;
	connect_type SINGLE_PHASE_CENTER_TAPPED;
	install_type POLETOP;
	power_rating 10000;
	primary_voltage 2400;
	secondary_voltage 120;
	resistance 0.09;
	reactance 1.81;
}

object transformer_configuration {
	name Xfrm_config_PV_L_79883_B;
	connect_type SINGLE_PHASE_CENTER_TAPPED;
	install_type POLETOP;
	power_rating 10000;
	primary_voltage 2400;
	secondary_voltage 120;
	resistance 0.09;
	reactance 1.81;
}

object transformer_configuration {
	name Xfrm_config_PV_L_79883_C;
	connect_type SINGLE_PHASE_CENTER_TAPPED;
	install_type POLETOP;
	power_rating 10000;
	primary_voltage 2400;
	secondary_voltage 120;
	resistance 0.09;
	reactance 1.81;
}

object transformer_configuration {
	name Xfrm_config_PV_L_1007_A;
	connect_type SINGLE_PHASE_CENTER_TAPPED;
	install_type POLETOP;
	power_rating 10000;
	primary_voltage 2400;
	secondary_voltage 120;
	resistance 0.09;
	reactance 1.81;
}

object transformer_configuration {
	name Xfrm_config_PV_L_1007_B;
	connect_type SINGLE_PHASE_CENTER_TAPPED;
	install_type POLETOP;
	power_rating 10000;
	primary_voltage 2400;
	secondary_voltage 120;
	resistance 0.09;
	reactance 1.81;
}

object transformer_configuration {
	name Xfrm_config_PV_L_1007_C;
	connect_type SINGLE_PHASE_CENTER_TAPPED;
	install_type POLETOP;
	power_rating 10000;
	primary_voltage 2400;
	secondary_voltage 120;
	resistance 0.09;
	reactance 1.81;
}

object transformer_configuration {
	name Xfrm_config_PV_L_89172_B;
	connect_type SINGLE_PHASE_CENTER_TAPPED;
	install_type POLETOP;
	power_rating 10000;
	primary_voltage 2400;
	secondary_voltage 120;
	resistance 0.09;
	reactance 1.81;
}

object transformer_configuration {
	name Xfrm_config_PV_L_12684_C;
	connect_type SINGLE_PHASE_CENTER_TAPPED;
	install_type POLETOP;
	power_rating 10000;
	primary_voltage 2400;
	secondary_voltage 120;
	resistance 0.09;
	reactance 1.81;
}

object transformer_configuration {
	name Xfrm_config_PV_L_12684_A;
	connect_type SINGLE_PHASE_CENTER_TAPPED;
	install_type POLETOP;
	power_rating 10000;
	primary_voltage 2400;
	secondary_voltage 120;
	resistance 0.09;
	reactance 1.81;
}

object transformer_configuration {
	name Xfrm_config_PV_L_39393_A;
	connect_type SINGLE_PHASE_CENTER_TAPPED;
	install_type POLETOP;
	power_rating 10000;
	primary_voltage 2400;
	secondary_voltage 120;
	resistance 0.09;
	reactance 1.81;
}

object transformer_configuration {
	name Xfrm_config_PV_L_39393_B;
	connect_type SINGLE_PHASE_CENTER_TAPPED;
	install_type POLETOP;
	power_rating 10000;
	primary_voltage 2400;
	secondary_voltage 120;
	resistance 0.09;
	reactance 1.81;
}

object transformer_configuration {
	name Xfrm_config_PV_L_39393_C;
	connect_type SINGLE_PHASE_CENTER_TAPPED;
	install_type POLETOP;
	power_rating 10000;
	primary_voltage 2400;
	secondary_voltage 120;
	resistance 0.09;
	reactance 1.81;
}

object transformer_configuration {
	name Xfrm_config_PV_L_125160_B;
	connect_type SINGLE_PHASE_CENTER_TAPPED;
	install_type POLETOP;
	power_rating 10000;
	primary_voltage 2400;
	secondary_voltage 120;
	resistance 0.09;
	reactance 1.81;
}

object transformer_configuration {
	name Xfrm_config_PV_L_125160_A;
	connect_type SINGLE_PHASE_CENTER_TAPPED;
	install_type POLETOP;
	power_rating 10000;
	primary_voltage 2400;
	secondary_voltage 120;
	resistance 0.09;
	reactance 1.81;
}

object transformer_configuration {
	name Xfrm_config_PV_L_88087_C;
	connect_type SINGLE_PHASE_CENTER_TAPPED;
	install_type POLETOP;
	power_rating 10000;
	primary_voltage 2400;
	secondary_voltage 120;
	resistance 0.09;
	reactance 1.81;
}

object transformer_configuration {
	name Xfrm_config_PV_L_12595_C;
	connect_type SINGLE_PHASE_CENTER_TAPPED;
	install_type POLETOP;
	power_rating 10000;
	primary_voltage 2400;
	secondary_voltage 120;
	resistance 0.09;
	reactance 1.81;
}

object transformer_configuration {
	name Xfrm_config_PV_L_12595_B;
	connect_type SINGLE_PHASE_CENTER_TAPPED;
	install_type POLETOP;
	power_rating 10000;
	primary_voltage 2400;
	secondary_voltage 120;
	resistance 0.09;
	reactance 1.81;
}

object transformer_configuration {
	name Xfrm_config_PV_L_12595_A;
	connect_type SINGLE_PHASE_CENTER_TAPPED;
	install_type POLETOP;
	power_rating 10000;
	primary_voltage 2400;
	secondary_voltage 120;
	resistance 0.09;
	reactance 1.81;
}

object transformer_configuration {
	name Xfrm_config_PV_L_111954_A;
	connect_type SINGLE_PHASE_CENTER_TAPPED;
	install_type POLETOP;
	power_rating 10000;
	primary_voltage 2400;
	secondary_voltage 120;
	resistance 0.09;
	reactance 1.81;
}

object transformer_configuration {
	name Xfrm_config_PV_L_124261_B;
	connect_type SINGLE_PHASE_CENTER_TAPPED;
	install_type POLETOP;
	power_rating 10000;
	primary_voltage 2400;
	secondary_voltage 120;
	resistance 0.09;
	reactance 1.81;
}

object transformer_configuration {
	name Xfrm_config_PV_L_124261_C;
	connect_type SINGLE_PHASE_CENTER_TAPPED;
	install_type POLETOP;
	power_rating 10000;
	primary_voltage 2400;
	secondary_voltage 120;
	resistance 0.09;
	reactance 1.81;
}

object transformer_configuration {
	name Xfrm_config_PV_L_124261_A;
	connect_type SINGLE_PHASE_CENTER_TAPPED;
	install_type POLETOP;
	power_rating 10000;
	primary_voltage 2400;
	secondary_voltage 120;
	resistance 0.09;
	reactance 1.81;
}

object transformer_configuration {
	name Xfrm_config_PV_L_88089_B;
	connect_type SINGLE_PHASE_CENTER_TAPPED;
	install_type POLETOP;
	power_rating 10000;
	primary_voltage 2400;
	secondary_voltage 120;
	resistance 0.09;
	reactance 1.81;
}

object transformer_configuration {
	name Xfrm_config_PV_L_88089_C;
	connect_type SINGLE_PHASE_CENTER_TAPPED;
	install_type POLETOP;
	power_rating 10000;
	primary_voltage 2400;
	secondary_voltage 120;
	resistance 0.09;
	reactance 1.81;
}

object transformer_configuration {
	name Xfrm_config_PV_L_88089_A;
	connect_type SINGLE_PHASE_CENTER_TAPPED;
	install_type POLETOP;
	power_rating 10000;
	primary_voltage 2400;
	secondary_voltage 120;
	resistance 0.09;
	reactance 1.81;
}

object transformer_configuration {
	name Xfrm_config_PV_L_111954_B;
	connect_type SINGLE_PHASE_CENTER_TAPPED;
	install_type POLETOP;
	power_rating 10000;
	primary_voltage 2400;
	secondary_voltage 120;
	resistance 0.09;
	reactance 1.81;
}

object transformer_configuration {
	name Xfrm_config_PV_L_129058_B;
	connect_type SINGLE_PHASE_CENTER_TAPPED;
	install_type POLETOP;
	power_rating 10000;
	primary_voltage 2400;
	secondary_voltage 120;
	resistance 0.09;
	reactance 1.81;
}

object transformer_configuration {
	name Xfrm_config_PV_L_129058_A;
	connect_type SINGLE_PHASE_CENTER_TAPPED;
	install_type POLETOP;
	power_rating 10000;
	primary_voltage 2400;
	secondary_voltage 120;
	resistance 0.09;
	reactance 1.81;
}

object transformer_configuration {
	name Xfrm_config_PV_L_116493_A;
	connect_type SINGLE_PHASE_CENTER_TAPPED;
	install_type POLETOP;
	power_rating 10000;
	primary_voltage 2400;
	secondary_voltage 120;
	resistance 0.09;
	reactance 1.81;
}

object transformer_configuration {
	name Xfrm_config_PV_L_39392_C;
	connect_type SINGLE_PHASE_CENTER_TAPPED;
	install_type POLETOP;
	power_rating 10000;
	primary_voltage 2400;
	secondary_voltage 120;
	resistance 0.09;
	reactance 1.81;
}

object transformer_configuration {
	name Xfrm_config_PV_L_116495_A;
	connect_type SINGLE_PHASE_CENTER_TAPPED;
	install_type POLETOP;
	power_rating 10000;
	primary_voltage 2400;
	secondary_voltage 120;
	resistance 0.09;
	reactance 1.81;
}

object transformer_configuration {
	name Xfrm_config_PV_L_116495_B;
	connect_type SINGLE_PHASE_CENTER_TAPPED;
	install_type POLETOP;
	power_rating 10000;
	primary_voltage 2400;
	secondary_voltage 120;
	resistance 0.09;
	reactance 1.81;
}

object transformer_configuration {
	name Xfrm_config_PV_L_116493_B;
	connect_type SINGLE_PHASE_CENTER_TAPPED;
	install_type POLETOP;
	power_rating 10000;
	primary_voltage 2400;
	secondary_voltage 120;
	resistance 0.09;
	reactance 1.81;
}

object transformer_configuration {
	name Xfrm_config_PV_L_89172_C;
	connect_type SINGLE_PHASE_CENTER_TAPPED;
	install_type POLETOP;
	power_rating 10000;
	primary_voltage 2400;
	secondary_voltage 120;
	resistance 0.09;
	reactance 1.81;
}

//*********************************************
// Transformer Objects
//*********************************************
object transformer {
	name Xfrm_L_120491_A;
	phases AS;
	from N_1800054225;
	to N_L_120491_sec_A;
	configuration Xfrm_config_PV_L_120491_A;
}

object transformer {
	name Xfrm_L_138842_A;
	phases AS;
	from N_1800053739;
	to N_L_138842_sec_A;
	configuration Xfrm_config_PV_L_138842_A;
}

object transformer {
	name Xfrm_L_120491_C;
	phases CS;
	from N_1800054225;
	to N_L_120491_sec_C;
	configuration Xfrm_config_PV_L_120491_C;
}

object transformer {
	name Xfrm_L_120491_B;
	phases BS;
	from N_1800054225;
	to N_L_120491_sec_B;
	configuration Xfrm_config_PV_L_120491_B;
}

object transformer {
	name Xfrm_L_32404_B;
	phases BS;
	from N_1800054090;
	to N_L_32404_sec_B;
	configuration Xfrm_config_PV_L_32404_B;
}

object transformer {
	name Xfrm_L_32404_A;
	phases AS;
	from N_1800054090;
	to N_L_32404_sec_A;
	configuration Xfrm_config_PV_L_32404_A;
}

object transformer {
	name Xfrm_L_138842_B;
	phases BS;
	from N_1800053739;
	to N_L_138842_sec_B;
	configuration Xfrm_config_PV_L_138842_B;
}

object transformer {
	name Xfrm_L_8733_A;
	phases AS;
	from N_1800026290;
	to N_L_8733_sec_A;
	configuration Xfrm_config_PV_L_8733_A;
}

object transformer {
	name Xfrm_L_39475_B;
	phases BS;
	from N_1800053498;
	to N_L_39475_sec_B;
	configuration Xfrm_config_PV_L_39475_B;
}

object transformer {
	name Xfrm_L_39475_A;
	phases AS;
	from N_1800053498;
	to N_L_39475_sec_A;
	configuration Xfrm_config_PV_L_39475_A;
}

object transformer {
	name Xfrm_L_8733_B;
	phases BS;
	from N_1800026290;
	to N_L_8733_sec_B;
	configuration Xfrm_config_PV_L_8733_B;
}

object transformer {
	name Xfrm_L_123675_A;
	phases AS;
	from N_1800027953;
	to N_L_123675_sec_A;
	configuration Xfrm_config_PV_L_123675_A;
}

object transformer {
	name Xfrm_L_123675_B;
	phases BS;
	from N_1800027953;
	to N_L_123675_sec_B;
	configuration Xfrm_config_PV_L_123675_B;
}

object transformer {
	name Xfrm_L_123675_C;
	phases CS;
	from N_1800027953;
	to N_L_123675_sec_C;
	configuration Xfrm_config_PV_L_123675_C;
}

object transformer {
	name Xfrm_L_88100_C;
	phases CS;
	from N_1800031040;
	to N_L_88100_sec_C;
	configuration Xfrm_config_PV_L_88100_C;
}

object transformer {
	name Xfrm_L_88092_B;
	phases BS;
	from N_1800031040;
	to N_L_88092_sec_B;
	configuration Xfrm_config_PV_L_88092_B;
}

object transformer {
	name Xfrm_L_88092_C;
	phases CS;
	from N_1800031040;
	to N_L_88092_sec_C;
	configuration Xfrm_config_PV_L_88092_C;
}

object transformer {
	name Xfrm_L_88092_A;
	phases AS;
	from N_1800031040;
	to N_L_88092_sec_A;
	configuration Xfrm_config_PV_L_88092_A;
}

object transformer {
	name Xfrm_L_31765_B;
	phases BS;
	from N_1800039922;
	to N_L_31765_sec_B;
	configuration Xfrm_config_PV_L_31765_B;
}

object transformer {
	name Xfrm_L_31765_A;
	phases AS;
	from N_1800039922;
	to N_L_31765_sec_A;
	configuration Xfrm_config_PV_L_31765_A;
}

object transformer {
	name Xfrm_L_88100_A;
	phases AS;
	from N_1800031040;
	to N_L_88100_sec_A;
	configuration Xfrm_config_PV_L_88100_A;
}

object transformer {
	name Xfrm_L_72953_B;
	phases BS;
	from N_1800038447;
	to N_L_72953_sec_B;
	configuration Xfrm_config_PV_L_72953_B;
}

object transformer {
	name Xfrm_L_72953_A;
	phases AS;
	from N_1800038447;
	to N_L_72953_sec_A;
	configuration Xfrm_config_PV_L_72953_A;
}

object transformer {
	name Xfrm_L_144099_B;
	phases BS;
	from N_1800053600;
	to N_L_144099_sec_B;
	configuration Xfrm_config_PV_L_144099_B;
}

object transformer {
	name Xfrm_L_144099_A;
	phases AS;
	from N_1800053600;
	to N_L_144099_sec_A;
	configuration Xfrm_config_PV_L_144099_A;
}

object transformer {
	name Xfrm_L_9668_B;
	phases BS;
	from N_1800031217;
	to N_L_9668_sec_B;
	configuration Xfrm_config_PV_L_9668_B;
}

object transformer {
	name Xfrm_L_9668_A;
	phases AS;
	from N_1800031217;
	to N_L_9668_sec_A;
	configuration Xfrm_config_PV_L_9668_A;
}

object transformer {
	name Xfrm_L_145609_A;
	phases AS;
	from N_1800053746;
	to N_L_145609_sec_A;
	configuration Xfrm_config_PV_L_145609_A;
}

object transformer {
	name Xfrm_L_123711_B;
	phases BS;
	from N_1800053759;
	to N_L_123711_sec_B;
	configuration Xfrm_config_PV_L_123711_B;
}

object transformer {
	name Xfrm_L_123711_A;
	phases AS;
	from N_1800053759;
	to N_L_123711_sec_A;
	configuration Xfrm_config_PV_L_123711_A;
}

object transformer {
	name Xfrm_L_145609_B;
	phases BS;
	from N_1800053746;
	to N_L_145609_sec_B;
	configuration Xfrm_config_PV_L_145609_B;
}

object transformer {
	name Xfrm_L_88090_A;
	phases AS;
	from N_1800031040;
	to N_L_88090_sec_A;
	configuration Xfrm_config_PV_L_88090_A;
}

object transformer {
	name Xfrm_L_88090_B;
	phases BS;
	from N_1800031040;
	to N_L_88090_sec_B;
	configuration Xfrm_config_PV_L_88090_B;
}

object transformer {
	name Xfrm_L_88090_C;
	phases CS;
	from N_1800031040;
	to N_L_88090_sec_C;
	configuration Xfrm_config_PV_L_88090_C;
}

object transformer {
	name Xfrm_L_119156_B;
	phases BS;
	from N_1800054237;
	to N_L_119156_sec_B;
	configuration Xfrm_config_PV_L_119156_B;
}

object transformer {
	name Xfrm_L_119156_A;
	phases AS;
	from N_1800054237;
	to N_L_119156_sec_A;
	configuration Xfrm_config_PV_L_119156_A;
}

object transformer {
	name Xfrm_L_24092_A;
	phases AS;
	from N_1800058424;
	to N_L_24092_sec_A;
	configuration Xfrm_config_PV_L_24092_A;
}

object transformer {
	name Xfrm_L_24092_B;
	phases BS;
	from N_1800058424;
	to N_L_24092_sec_B;
	configuration Xfrm_config_PV_L_24092_B;
}

object transformer {
	name Xfrm_L_114709_B;
	phases BS;
	from N_1800054113;
	to N_L_114709_sec_B;
	configuration Xfrm_config_PV_L_114709_B;
}

object transformer {
	name Xfrm_L_114709_C;
	phases CS;
	from N_1800054113;
	to N_L_114709_sec_C;
	configuration Xfrm_config_PV_L_114709_C;
}

object transformer {
	name Xfrm_L_111954_C;
	phases CS;
	from N_1800034722;
	to N_L_111954_sec_C;
	configuration Xfrm_config_PV_L_111954_C;
}

object transformer {
	name Xfrm_L_114709_A;
	phases AS;
	from N_1800054113;
	to N_L_114709_sec_A;
	configuration Xfrm_config_PV_L_114709_A;
}

object transformer {
	name Xfrm_L_118309_B;
	phases BS;
	from N_1800006506;
	to N_L_118309_sec_B;
	configuration Xfrm_config_PV_L_118309_B;
}

object transformer {
	name Xfrm_L_118309_C;
	phases CS;
	from N_1800006506;
	to N_L_118309_sec_C;
	configuration Xfrm_config_PV_L_118309_C;
}

object transformer {
	name Xfrm_L_118309_A;
	phases AS;
	from N_1800006506;
	to N_L_118309_sec_A;
	configuration Xfrm_config_PV_L_118309_A;
}

object transformer {
	name Xfrm_L_128221_B;
	phases BS;
	from N_1800016487;
	to N_L_128221_sec_B;
	configuration Xfrm_config_PV_L_128221_B;
}

object transformer {
	name Xfrm_L_128221_C;
	phases CS;
	from N_1800016487;
	to N_L_128221_sec_C;
	configuration Xfrm_config_PV_L_128221_C;
}

object transformer {
	name Xfrm_L_128221_A;
	phases AS;
	from N_1800016487;
	to N_L_128221_sec_A;
	configuration Xfrm_config_PV_L_128221_A;
}

object transformer {
	name Xfrm_L_12684_B;
	phases BS;
	from N_1800040448;
	to N_L_12684_sec_B;
	configuration Xfrm_config_PV_L_12684_B;
}

object transformer {
	name Xfrm_L_28871_A;
	phases AS;
	from N_1800038436;
	to N_L_28871_sec_A;
	configuration Xfrm_config_PV_L_28871_A;
}

object transformer {
	name Xfrm_L_28871_B;
	phases BS;
	from N_1800038436;
	to N_L_28871_sec_B;
	configuration Xfrm_config_PV_L_28871_B;
}

object transformer {
	name Xfrm_L_14305_A;
	phases AS;
	from N_1800054090;
	to N_L_14305_sec_A;
	configuration Xfrm_config_PV_L_14305_A;
}

object transformer {
	name Xfrm_L_14305_B;
	phases BS;
	from N_1800054090;
	to N_L_14305_sec_B;
	configuration Xfrm_config_PV_L_14305_B;
}

object transformer {
	name Xfrm_L_145623_A;
	phases AS;
	from N_1800053600;
	to N_L_145623_sec_A;
	configuration Xfrm_config_PV_L_145623_A;
}

object transformer {
	name Xfrm_L_145623_B;
	phases BS;
	from N_1800053600;
	to N_L_145623_sec_B;
	configuration Xfrm_config_PV_L_145623_B;
}

object transformer {
	name Xfrm_L_89172_A;
	phases AS;
	from N_1800031040;
	to N_L_89172_sec_A;
	configuration Xfrm_config_PV_L_89172_A;
}

object transformer {
	name Xfrm_L_88109_C;
	phases CS;
	from N_1800031040;
	to N_L_88109_sec_C;
	configuration Xfrm_config_PV_L_88109_C;
}

object transformer {
	name Xfrm_L_88109_B;
	phases BS;
	from N_1800031040;
	to N_L_88109_sec_B;
	configuration Xfrm_config_PV_L_88109_B;
}

object transformer {
	name Xfrm_L_88109_A;
	phases AS;
	from N_1800031040;
	to N_L_88109_sec_A;
	configuration Xfrm_config_PV_L_88109_A;
}

object transformer {
	name Xfrm_L_30105_A;
	phases AS;
	from N_1800002020;
	to N_L_30105_sec_A;
	configuration Xfrm_config_PV_L_30105_A;
}

object transformer {
	name Xfrm_L_30105_B;
	phases BS;
	from N_1800002020;
	to N_L_30105_sec_B;
	configuration Xfrm_config_PV_L_30105_B;
}

object transformer {
	name Xfrm_L_30105_C;
	phases CS;
	from N_1800002020;
	to N_L_30105_sec_C;
	configuration Xfrm_config_PV_L_30105_C;
}

object transformer {
	name Xfrm_L_39392_A;
	phases AS;
	from N_1800053498;
	to N_L_39392_sec_A;
	configuration Xfrm_config_PV_L_39392_A;
}

object transformer {
	name Xfrm_L_135525_B;
	phases BS;
	from N_1800053597;
	to N_L_135525_sec_B;
	configuration Xfrm_config_PV_L_135525_B;
}

object transformer {
	name Xfrm_L_135525_A;
	phases AS;
	from N_1800053597;
	to N_L_135525_sec_A;
	configuration Xfrm_config_PV_L_135525_A;
}

object transformer {
	name Xfrm_L_39392_B;
	phases BS;
	from N_1800053498;
	to N_L_39392_sec_B;
	configuration Xfrm_config_PV_L_39392_B;
}

object transformer {
	name Xfrm_L_2588_B;
	phases BS;
	from N_1800054089;
	to N_L_2588_sec_B;
	configuration Xfrm_config_PV_L_2588_B;
}

object transformer {
	name Xfrm_L_2588_A;
	phases AS;
	from N_1800054089;
	to N_L_2588_sec_A;
	configuration Xfrm_config_PV_L_2588_A;
}

object transformer {
	name Xfrm_L_1010_A;
	phases AS;
	from N_1800021506;
	to N_L_1010_sec_A;
	configuration Xfrm_config_PV_L_1010_A;
}

object transformer {
	name Xfrm_L_1010_B;
	phases BS;
	from N_1800021506;
	to N_L_1010_sec_B;
	configuration Xfrm_config_PV_L_1010_B;
}

object transformer {
	name Xfrm_L_1010_C;
	phases CS;
	from N_1800021506;
	to N_L_1010_sec_C;
	configuration Xfrm_config_PV_L_1010_C;
}

//object transformer {
//	name Xfrm_L_108328_A;
//	phases AS;
//	from N_1800207274;
//	to N_L_108328_sec_A;
//	configuration Xfrm_config_PV_L_108328_A;
//}

//object transformer {
//	name Xfrm_L_108328_B;
//	phases BS;
//	from N_1800207274;
//	to N_L_108328_sec_B;
//	configuration Xfrm_config_PV_L_108328_B;
//}

//object transformer {
//	name Xfrm_L_108328_C;
//	phases CS;
//	from N_1800207274;
//	to N_L_108328_sec_C;
//	configuration Xfrm_config_PV_L_108328_C;
//}

object transformer {
	name Xfrm_L_88100_B;
	phases BS;
	from N_1800031040;
	to N_L_88100_sec_B;
	configuration Xfrm_config_PV_L_88100_B;
}

object transformer {
	name Xfrm_L_39476_A;
	phases AS;
	from N_1800053498;
	to N_L_39476_sec_A;
	configuration Xfrm_config_PV_L_39476_A;
}

object transformer {
	name Xfrm_L_39476_B;
	phases BS;
	from N_1800053498;
	to N_L_39476_sec_B;
	configuration Xfrm_config_PV_L_39476_B;
}

object transformer {
	name Xfrm_L_39476_C;
	phases CS;
	from N_1800053498;
	to N_L_39476_sec_C;
	configuration Xfrm_config_PV_L_39476_C;
}

object transformer {
	name Xfrm_L_88085_B;
	phases BS;
	from N_1800031040;
	to N_L_88085_sec_B;
	configuration Xfrm_config_PV_L_88085_B;
}

object transformer {
	name Xfrm_L_88085_C;
	phases CS;
	from N_1800031040;
	to N_L_88085_sec_C;
	configuration Xfrm_config_PV_L_88085_C;
}

object transformer {
	name Xfrm_L_88085_A;
	phases AS;
	from N_1800031040;
	to N_L_88085_sec_A;
	configuration Xfrm_config_PV_L_88085_A;
}

object transformer {
	name Xfrm_L_88102_A;
	phases AS;
	from N_1800031040;
	to N_L_88102_sec_A;
	configuration Xfrm_config_PV_L_88102_A;
}

object transformer {
	name Xfrm_L_88102_B;
	phases BS;
	from N_1800031040;
	to N_L_88102_sec_B;
	configuration Xfrm_config_PV_L_88102_B;
}

object transformer {
	name Xfrm_L_88102_C;
	phases CS;
	from N_1800031040;
	to N_L_88102_sec_C;
	configuration Xfrm_config_PV_L_88102_C;
}

object transformer {
	name Xfrm_L_143367_B;
	phases BS;
	from N_1800053600;
	to N_L_143367_sec_B;
	configuration Xfrm_config_PV_L_143367_B;
}

object transformer {
	name Xfrm_L_80053_B;
	phases BS;
	from N_1800021882;
	to N_L_80053_sec_B;
	configuration Xfrm_config_PV_L_80053_B;
}

object transformer {
	name Xfrm_L_143367_A;
	phases AS;
	from N_1800053600;
	to N_L_143367_sec_A;
	configuration Xfrm_config_PV_L_143367_A;
}

object transformer {
	name Xfrm_L_79594_A;
	phases AS;
	from N_1800031040;
	to N_L_79594_sec_A;
	configuration Xfrm_config_PV_L_79594_A;
}

object transformer {
	name Xfrm_L_79594_C;
	phases CS;
	from N_1800031040;
	to N_L_79594_sec_C;
	configuration Xfrm_config_PV_L_79594_C;
}

object transformer {
	name Xfrm_L_79594_B;
	phases BS;
	from N_1800031040;
	to N_L_79594_sec_B;
	configuration Xfrm_config_PV_L_79594_B;
}

object transformer {
	name Xfrm_L_21595_A;
	phases AS;
	from N_1800054147;
	to N_L_21595_sec_A;
	configuration Xfrm_config_PV_L_21595_A;
}

object transformer {
	name Xfrm_L_88087_A;
	phases AS;
	from N_1800031040;
	to N_L_88087_sec_A;
	configuration Xfrm_config_PV_L_88087_A;
}

object transformer {
	name Xfrm_L_88087_B;
	phases BS;
	from N_1800031040;
	to N_L_88087_sec_B;
	configuration Xfrm_config_PV_L_88087_B;
}

object transformer {
	name Xfrm_L_21595_B;
	phases BS;
	from N_1800054147;
	to N_L_21595_sec_B;
	configuration Xfrm_config_PV_L_21595_B;
}

object transformer {
	name Xfrm_L_61890_A;
	phases AS;
	from N_1800017604;
	to N_L_61890_sec_A;
	configuration Xfrm_config_PV_L_61890_A;
}

object transformer {
	name Xfrm_L_61890_C;
	phases CS;
	from N_1800017604;
	to N_L_61890_sec_C;
	configuration Xfrm_config_PV_L_61890_C;
}

object transformer {
	name Xfrm_L_61890_B;
	phases BS;
	from N_1800017604;
	to N_L_61890_sec_B;
	configuration Xfrm_config_PV_L_61890_B;
}

object transformer {
	name Xfrm_L_80053_A;
	phases AS;
	from N_1800021882;
	to N_L_80053_sec_A;
	configuration Xfrm_config_PV_L_80053_A;
}

object transformer {
	name Xfrm_L_39475_C;
	phases CS;
	from N_1800053498;
	to N_L_39475_sec_C;
	configuration Xfrm_config_PV_L_39475_C;
}

object transformer {
	name Xfrm_L_79883_A;
	phases AS;
	from N_1800031040;
	to N_L_79883_sec_A;
	configuration Xfrm_config_PV_L_79883_A;
}

object transformer {
	name Xfrm_L_79883_B;
	phases BS;
	from N_1800031040;
	to N_L_79883_sec_B;
	configuration Xfrm_config_PV_L_79883_B;
}

object transformer {
	name Xfrm_L_79883_C;
	phases CS;
	from N_1800031040;
	to N_L_79883_sec_C;
	configuration Xfrm_config_PV_L_79883_C;
}

object transformer {
	name Xfrm_L_1007_A;
	phases AS;
	from N_1800021506;
	to N_L_1007_sec_A;
	configuration Xfrm_config_PV_L_1007_A;
}

object transformer {
	name Xfrm_L_1007_B;
	phases BS;
	from N_1800021506;
	to N_L_1007_sec_B;
	configuration Xfrm_config_PV_L_1007_B;
}

object transformer {
	name Xfrm_L_1007_C;
	phases CS;
	from N_1800021506;
	to N_L_1007_sec_C;
	configuration Xfrm_config_PV_L_1007_C;
}

object transformer {
	name Xfrm_L_89172_B;
	phases BS;
	from N_1800031040;
	to N_L_89172_sec_B;
	configuration Xfrm_config_PV_L_89172_B;
}

object transformer {
	name Xfrm_L_12684_C;
	phases CS;
	from N_1800040448;
	to N_L_12684_sec_C;
	configuration Xfrm_config_PV_L_12684_C;
}

object transformer {
	name Xfrm_L_12684_A;
	phases AS;
	from N_1800040448;
	to N_L_12684_sec_A;
	configuration Xfrm_config_PV_L_12684_A;
}

object transformer {
	name Xfrm_L_39393_A;
	phases AS;
	from N_1800053498;
	to N_L_39393_sec_A;
	configuration Xfrm_config_PV_L_39393_A;
}

object transformer {
	name Xfrm_L_39393_B;
	phases BS;
	from N_1800053498;
	to N_L_39393_sec_B;
	configuration Xfrm_config_PV_L_39393_B;
}

object transformer {
	name Xfrm_L_39393_C;
	phases CS;
	from N_1800053498;
	to N_L_39393_sec_C;
	configuration Xfrm_config_PV_L_39393_C;
}

object transformer {
	name Xfrm_L_125160_B;
	phases BS;
	from N_1800026290;
	to N_L_125160_sec_B;
	configuration Xfrm_config_PV_L_125160_B;
}

object transformer {
	name Xfrm_L_125160_A;
	phases AS;
	from N_1800026290;
	to N_L_125160_sec_A;
	configuration Xfrm_config_PV_L_125160_A;
}

object transformer {
	name Xfrm_L_88087_C;
	phases CS;
	from N_1800031040;
	to N_L_88087_sec_C;
	configuration Xfrm_config_PV_L_88087_C;
}

object transformer {
	name Xfrm_L_12595_C;
	phases CS;
	from N_1800019123;
	to N_L_12595_sec_C;
	configuration Xfrm_config_PV_L_12595_C;
}

object transformer {
	name Xfrm_L_12595_B;
	phases BS;
	from N_1800019123;
	to N_L_12595_sec_B;
	configuration Xfrm_config_PV_L_12595_B;
}

object transformer {
	name Xfrm_L_12595_A;
	phases AS;
	from N_1800019123;
	to N_L_12595_sec_A;
	configuration Xfrm_config_PV_L_12595_A;
}

object transformer {
	name Xfrm_L_111954_A;
	phases AS;
	from N_1800034722;
	to N_L_111954_sec_A;
	configuration Xfrm_config_PV_L_111954_A;
}

object transformer {
	name Xfrm_L_124261_B;
	phases BS;
	from N_1800015793;
	to N_L_124261_sec_B;
	configuration Xfrm_config_PV_L_124261_B;
}

object transformer {
	name Xfrm_L_124261_C;
	phases CS;
	from N_1800015793;
	to N_L_124261_sec_C;
	configuration Xfrm_config_PV_L_124261_C;
}

object transformer {
	name Xfrm_L_124261_A;
	phases AS;
	from N_1800015793;
	to N_L_124261_sec_A;
	configuration Xfrm_config_PV_L_124261_A;
}

object transformer {
	name Xfrm_L_88089_B;
	phases BS;
	from N_1800031040;
	to N_L_88089_sec_B;
	configuration Xfrm_config_PV_L_88089_B;
}

object transformer {
	name Xfrm_L_88089_C;
	phases CS;
	from N_1800031040;
	to N_L_88089_sec_C;
	configuration Xfrm_config_PV_L_88089_C;
}

object transformer {
	name Xfrm_L_88089_A;
	phases AS;
	from N_1800031040;
	to N_L_88089_sec_A;
	configuration Xfrm_config_PV_L_88089_A;
}

object transformer {
	name Xfrm_L_111954_B;
	phases BS;
	from N_1800034722;
	to N_L_111954_sec_B;
	configuration Xfrm_config_PV_L_111954_B;
}

object transformer {
	name Xfrm_L_129058_B;
	phases BS;
	from N_1800007301;
	to N_L_129058_sec_B;
	configuration Xfrm_config_PV_L_129058_B;
}

object transformer {
	name Xfrm_L_129058_A;
	phases AS;
	from N_1800007301;
	to N_L_129058_sec_A;
	configuration Xfrm_config_PV_L_129058_A;
}

object transformer {
	name Xfrm_L_116493_A;
	phases AS;
	from N_1800054124;
	to N_L_116493_sec_A;
	configuration Xfrm_config_PV_L_116493_A;
}

object transformer {
	name Xfrm_L_39392_C;
	phases CS;
	from N_1800053498;
	to N_L_39392_sec_C;
	configuration Xfrm_config_PV_L_39392_C;
}

object transformer {
	name Xfrm_L_116495_A;
	phases AS;
	from N_1800053454;
	to N_L_116495_sec_A;
	configuration Xfrm_config_PV_L_116495_A;
}

object transformer {
	name Xfrm_L_116495_B;
	phases BS;
	from N_1800053454;
	to N_L_116495_sec_B;
	configuration Xfrm_config_PV_L_116495_B;
}

object transformer {
	name Xfrm_L_116493_B;
	phases BS;
	from N_1800054124;
	to N_L_116493_sec_B;
	configuration Xfrm_config_PV_L_116493_B;
}

object transformer {
	name Xfrm_L_89172_C;
	phases CS;
	from N_1800031040;
	to N_L_89172_sec_C;
	configuration Xfrm_config_PV_L_89172_C;
}

//*********************************************
// Triplex meter Objects
//*********************************************
object triplex_meter {
	name N_L_120491_sec_A;
	phases AS;
	nominal_voltage 120;
}

object triplex_meter {
	name N_L_138842_sec_A;
	phases AS;
	nominal_voltage 120;
}

object triplex_meter {
	name N_L_120491_sec_C;
	phases CS;
	nominal_voltage 120;
}

object triplex_meter {
	name N_L_120491_sec_B;
	phases BS;
	nominal_voltage 120;
}

object triplex_meter {
	name N_L_32404_sec_B;
	phases BS;
	nominal_voltage 120;
}

object triplex_meter {
	name N_L_32404_sec_A;
	phases AS;
	nominal_voltage 120;
}

object triplex_meter {
	name N_L_138842_sec_B;
	phases BS;
	nominal_voltage 120;
}

object triplex_meter {
	name N_L_8733_sec_A;
	phases AS;
	nominal_voltage 120;
}

object triplex_meter {
	name N_L_39475_sec_B;
	phases BS;
	nominal_voltage 120;
}

object triplex_meter {
	name N_L_39475_sec_A;
	phases AS;
	nominal_voltage 120;
}

object triplex_meter {
	name N_L_8733_sec_B;
	phases BS;
	nominal_voltage 120;
}

object triplex_meter {
	name N_L_123675_sec_A;
	phases AS;
	nominal_voltage 120;
}

object triplex_meter {
	name N_L_123675_sec_B;
	phases BS;
	nominal_voltage 120;
}

object triplex_meter {
	name N_L_123675_sec_C;
	phases CS;
	nominal_voltage 120;
}

object triplex_meter {
	name N_L_88100_sec_C;
	phases CS;
	nominal_voltage 120;
}

object triplex_meter {
	name N_L_88092_sec_B;
	phases BS;
	nominal_voltage 120;
}

object triplex_meter {
	name N_L_88092_sec_C;
	phases CS;
	nominal_voltage 120;
}

object triplex_meter {
	name N_L_88092_sec_A;
	phases AS;
	nominal_voltage 120;
}

object triplex_meter {
	name N_L_31765_sec_B;
	phases BS;
	nominal_voltage 120;
}

object triplex_meter {
	name N_L_31765_sec_A;
	phases AS;
	nominal_voltage 120;
}

object triplex_meter {
	name N_L_88100_sec_A;
	phases AS;
	nominal_voltage 120;
}

object triplex_meter {
	name N_L_72953_sec_B;
	phases BS;
	nominal_voltage 120;
}

object triplex_meter {
	name N_L_72953_sec_A;
	phases AS;
	nominal_voltage 120;
}

object triplex_meter {
	name N_L_144099_sec_B;
	phases BS;
	nominal_voltage 120;
}

object triplex_meter {
	name N_L_144099_sec_A;
	phases AS;
	nominal_voltage 120;
}

object triplex_meter {
	name N_L_9668_sec_B;
	phases BS;
	nominal_voltage 120;
}

object triplex_meter {
	name N_L_9668_sec_A;
	phases AS;
	nominal_voltage 120;
}

object triplex_meter {
	name N_L_145609_sec_A;
	phases AS;
	nominal_voltage 120;
}

object triplex_meter {
	name N_L_123711_sec_B;
	phases BS;
	nominal_voltage 120;
}

object triplex_meter {
	name N_L_123711_sec_A;
	phases AS;
	nominal_voltage 120;
}

object triplex_meter {
	name N_L_145609_sec_B;
	phases BS;
	nominal_voltage 120;
}

object triplex_meter {
	name N_L_88090_sec_A;
	phases AS;
	nominal_voltage 120;
}

object triplex_meter {
	name N_L_88090_sec_B;
	phases BS;
	nominal_voltage 120;
}

object triplex_meter {
	name N_L_88090_sec_C;
	phases CS;
	nominal_voltage 120;
}

object triplex_meter {
	name N_L_119156_sec_B;
	phases BS;
	nominal_voltage 120;
}

object triplex_meter {
	name N_L_119156_sec_A;
	phases AS;
	nominal_voltage 120;
}

object triplex_meter {
	name N_L_24092_sec_A;
	phases AS;
	nominal_voltage 120;
}

object triplex_meter {
	name N_L_24092_sec_B;
	phases BS;
	nominal_voltage 120;
}

object triplex_meter {
	name N_L_114709_sec_B;
	phases BS;
	nominal_voltage 120;
}

object triplex_meter {
	name N_L_114709_sec_C;
	phases CS;
	nominal_voltage 120;
}

object triplex_meter {
	name N_L_111954_sec_C;
	phases CS;
	nominal_voltage 120;
}

object triplex_meter {
	name N_L_114709_sec_A;
	phases AS;
	nominal_voltage 120;
}

object triplex_meter {
	name N_L_118309_sec_B;
	phases BS;
	nominal_voltage 120;
}

object triplex_meter {
	name N_L_118309_sec_C;
	phases CS;
	nominal_voltage 120;
}

object triplex_meter {
	name N_L_118309_sec_A;
	phases AS;
	nominal_voltage 120;
}

object triplex_meter {
	name N_L_128221_sec_B;
	phases BS;
	nominal_voltage 120;
}

object triplex_meter {
	name N_L_128221_sec_C;
	phases CS;
	nominal_voltage 120;
}

object triplex_meter {
	name N_L_128221_sec_A;
	phases AS;
	nominal_voltage 120;
}

object triplex_meter {
	name N_L_12684_sec_B;
	phases BS;
	nominal_voltage 120;
}

object triplex_meter {
	name N_L_28871_sec_A;
	phases AS;
	nominal_voltage 120;
}

object triplex_meter {
	name N_L_28871_sec_B;
	phases BS;
	nominal_voltage 120;
}

object triplex_meter {
	name N_L_14305_sec_A;
	phases AS;
	nominal_voltage 120;
}

object triplex_meter {
	name N_L_14305_sec_B;
	phases BS;
	nominal_voltage 120;
}

object triplex_meter {
	name N_L_145623_sec_A;
	phases AS;
	nominal_voltage 120;
}

object triplex_meter {
	name N_L_145623_sec_B;
	phases BS;
	nominal_voltage 120;
}

object triplex_meter {
	name N_L_89172_sec_A;
	phases AS;
	nominal_voltage 120;
}

object triplex_meter {
	name N_L_88109_sec_C;
	phases CS;
	nominal_voltage 120;
}

object triplex_meter {
	name N_L_88109_sec_B;
	phases BS;
	nominal_voltage 120;
}

object triplex_meter {
	name N_L_88109_sec_A;
	phases AS;
	nominal_voltage 120;
}

object triplex_meter {
	name N_L_30105_sec_A;
	phases AS;
	nominal_voltage 120;
}

object triplex_meter {
	name N_L_30105_sec_B;
	phases BS;
	nominal_voltage 120;
}

object triplex_meter {
	name N_L_30105_sec_C;
	phases CS;
	nominal_voltage 120;
}

object triplex_meter {
	name N_L_39392_sec_A;
	phases AS;
	nominal_voltage 120;
}

object triplex_meter {
	name N_L_135525_sec_B;
	phases BS;
	nominal_voltage 120;
}

object triplex_meter {
	name N_L_135525_sec_A;
	phases AS;
	nominal_voltage 120;
}

object triplex_meter {
	name N_L_39392_sec_B;
	phases BS;
	nominal_voltage 120;
}

object triplex_meter {
	name N_L_2588_sec_B;
	phases BS;
	nominal_voltage 120;
}

object triplex_meter {
	name N_L_2588_sec_A;
	phases AS;
	nominal_voltage 120;
}

object triplex_meter {
	name N_L_1010_sec_A;
	phases AS;
	nominal_voltage 120;
}

object triplex_meter {
	name N_L_1010_sec_B;
	phases BS;
	nominal_voltage 120;
}

object triplex_meter {
	name N_L_1010_sec_C;
	phases CS;
	nominal_voltage 120;
}

object triplex_meter {
	name N_L_108328_sec_A;
	phases AS;
	nominal_voltage 120;
}

object triplex_meter {
	name N_L_108328_sec_B;
	phases BS;
	nominal_voltage 120;
}

object triplex_meter {
	name N_L_108328_sec_C;
	phases CS;
	nominal_voltage 120;
}

object triplex_meter {
	name N_L_88100_sec_B;
	phases BS;
	nominal_voltage 120;
}

object triplex_meter {
	name N_L_39476_sec_A;
	phases AS;
	nominal_voltage 120;
}

object triplex_meter {
	name N_L_39476_sec_B;
	phases BS;
	nominal_voltage 120;
}

object triplex_meter {
	name N_L_39476_sec_C;
	phases CS;
	nominal_voltage 120;
}

object triplex_meter {
	name N_L_88085_sec_B;
	phases BS;
	nominal_voltage 120;
}

object triplex_meter {
	name N_L_88085_sec_C;
	phases CS;
	nominal_voltage 120;
}

object triplex_meter {
	name N_L_88085_sec_A;
	phases AS;
	nominal_voltage 120;
}

object triplex_meter {
	name N_L_88102_sec_A;
	phases AS;
	nominal_voltage 120;
}

object triplex_meter {
	name N_L_88102_sec_B;
	phases BS;
	nominal_voltage 120;
}

object triplex_meter {
	name N_L_88102_sec_C;
	phases CS;
	nominal_voltage 120;
}

object triplex_meter {
	name N_L_143367_sec_B;
	phases BS;
	nominal_voltage 120;
}

object triplex_meter {
	name N_L_80053_sec_B;
	phases BS;
	nominal_voltage 120;
}

object triplex_meter {
	name N_L_143367_sec_A;
	phases AS;
	nominal_voltage 120;
}

object triplex_meter {
	name N_L_79594_sec_A;
	phases AS;
	nominal_voltage 120;
}

object triplex_meter {
	name N_L_79594_sec_C;
	phases CS;
	nominal_voltage 120;
}

object triplex_meter {
	name N_L_79594_sec_B;
	phases BS;
	nominal_voltage 120;
}

object triplex_meter {
	name N_L_21595_sec_A;
	phases AS;
	nominal_voltage 120;
}

object triplex_meter {
	name N_L_88087_sec_A;
	phases AS;
	nominal_voltage 120;
}

object triplex_meter {
	name N_L_88087_sec_B;
	phases BS;
	nominal_voltage 120;
}

object triplex_meter {
	name N_L_21595_sec_B;
	phases BS;
	nominal_voltage 120;
}

object triplex_meter {
	name N_L_61890_sec_A;
	phases AS;
	nominal_voltage 120;
}

object triplex_meter {
	name N_L_61890_sec_C;
	phases CS;
	nominal_voltage 120;
}

object triplex_meter {
	name N_L_61890_sec_B;
	phases BS;
	nominal_voltage 120;
}

object triplex_meter {
	name N_L_80053_sec_A;
	phases AS;
	nominal_voltage 120;
}

object triplex_meter {
	name N_L_39475_sec_C;
	phases CS;
	nominal_voltage 120;
}

object triplex_meter {
	name N_L_79883_sec_A;
	phases AS;
	nominal_voltage 120;
}

object triplex_meter {
	name N_L_79883_sec_B;
	phases BS;
	nominal_voltage 120;
}

object triplex_meter {
	name N_L_79883_sec_C;
	phases CS;
	nominal_voltage 120;
}

object triplex_meter {
	name N_L_1007_sec_A;
	phases AS;
	nominal_voltage 120;
}

object triplex_meter {
	name N_L_1007_sec_B;
	phases BS;
	nominal_voltage 120;
}

object triplex_meter {
...